# Packages
 &PACKAGES
 useEXF             = .TRUE.,
 useCAL             = .TRUE.,
 useGMRedi          = .TRUE.,
 useSeaice          = .TRUE.,
 useGGL90           = .TRUE.,
 useSALT_PlUME      = .TRUE.,
 useDOWN_SLOPE      = .FALSE.,
 useOBCS            = .TRUE.,
 useDiagnostics     = .TRUE.,
 useAUTODIFF        = .FALSE.,
 useECCO            = .FALSE.,
 useCTRL            = .FALSE.,
 useProfiles        = .FALSE.,
 useSMOOTH          = .FALSE.,
 &
