# Packages
 &PACKAGES
  useEXF    = .TRUE.,
  useCAL    = .TRUE.,
  useSEAICE = .TRUE.,
  useDiagnostics=.TRUE.,
  useMNC = .TRUE.,
 &
