#
# *******************
# Calendar Parameters
# *******************
 &CAL_NML
# TheCalendar='gregorian',
 TheCalendar='model',
 startDate_1=00000101,
#startDate_1=00000104,
 startDate_2=000000,
 &
