# Packages
 &PACKAGES
 useGMRedi=.TRUE.,
 useKPP   =.TRUE.,
 useSEAICE=.true.,
#useTHSice=.true.,
#useShelfIce = .true.,
 useCAL = .TRUE.,
 useEXF = .true.,
#useMNC   =.true.,
#useDiagnostics = .true.,
 usePTRACERS=.false.,
 useGCHEM = .false.,
#useDOWN_SLOPE = .TRUE., 
# useRBCS = .TRUE.,
# useGGL90=.TRUE.,
 useSALT_PlUME=.TRUE.,
 useCTRL =.TRUE.,
 useECCO = .FALSE.,
 &
  
