&EEPARMS
 nTx=1,
 nTy=1,
 useCubedSphereExchange = .TRUE.,
 printMapIncludesZeros = .TRUE.
&
