# SEAICE parameters
 &SEAICE_PARM01
 SEAICEwriteState = .TRUE.,
# SEAICEheatConsFix  = .TRUE.,
  SEAICE_no_slip     = .TRUE.,
# this advection scheme does not work for the adjoint
  SEAICEadvScheme    = 33,
# SEAICEadvScheme    = 77,
# SEAICEadvScheme    = 30,
  SEAICE_drag        = 0.001,
  SEAICE_drag_south  = 0.002,
  SEAICE_wetAlbTemp  = 0.0,
  SEAICE_salt0       = 4.0,
  LSR_ERROR = 1.e-5,
# SEAICEnonLinIterMax = 10,
# just too expensive to have 10 iterations
  SEAICEnonLinIterMax = 2,
# NO EFFECT in seaice_growth_adx
# this value should be default for the McPhee parameterization
 SEAICE_mcPheeTaper=0.92,
# from 1D_ocean_ice_column per Ian's recommendation (but I modify them anyway)
 SEAICE_mcPheePiston= 0.000875,
 SEAICE_mcPheePiston= 7.291666666666666E-05,
 SEAICE_frazilFrac  = 0.,
 SEAICE_saltFrac    = 0.30,
# I want variable freezing temperature, that why these are commented out
# SEAICE_tempFrz0    = -1.96,
# SEAICE_dTempFrz_dS = 0.,
  SEAICE_area_reg    = 0.15,
  SEAICE_hice_reg    = 0.10,
# doesn't help:
# SEAICE_area_reg    = 0.05,
# SEAICE_hice_reg    = 0.05,
  IMAX_TICE = 6,
# Depending on vertical resolution this angle should have a value
# > 0 (e.g., 25deg for drF(1)=10m,)
# SEAICEscaleSurfStress = .FALSE.,
  SEAICE_waterTurnAngle = 25.0,
  HO        = 0.5,
# HO_south  = 1.,
  SEAICE_multDim = 7,
  SEAICE_useMultDimSnow = .TRUE.,
  SEAICEpressReplFac = 0.,
# this is what Gael uses:
# SEAICE_strength = 22.5e3,
  SEAICE_strength = 15.0e3,
  SEAICE_strength = 27.5e3,
  SEAICE_cStar    = 15.,
# make the ice thicker than two meters much harder
# SEAICEpresH0=2.,
# SEAICEpresPow0=1,
# SEAICEpresPow1=3,
#
# NO EFFECT in seaice_growth_adx
# SEAICE_mcPheePiston= 3.858024691358025E-05,
# SEAICE_frazilFrac  = 1.,
# SEAICE_mcPheeTaper = 0.,
# in old/run03, this seemed to reduce ice thickness dramatically:
# SEAICE_growMeltByConv = .TRUE.,
# SEAICE_areaGainFormula = 2,
# SEAICE_areaLossFormula = 3,
#SInegFac = 0.,
 &

 &SEAICE_PARM02
 &

 &SEAICE_PARM03
 &
