# Diagnostic Package Choices
#-----------------
# for each output-stream:
#  filename(n) : prefix of the output file name (only 8.c long) for outp.stream n
#  frequency(n):< 0 : write snap-shot output every |frequency| seconds
#               > 0 : write time-average output every frequency seconds
#  timePhase(n)     : write at time = timePhase + multiple of |frequency|
#  levels(:,n) : list of levels to write to file (Notes: declared as REAL)
#                 when this entry is missing, select all common levels of this list
#  fields(:,n) : list of diagnostics fields (8.c) (see "available_diagnostics" file
#                 for the list of all available diag. in this particular config)
#-----------------
 &diagnostics_list
  diag_mnc = .false.,
#
 frequency(1) = 31536000.,
 filename(1) = 'diags3D',
 fields(1,1) = 'THETA   ','SALT    ','DRHODR  ',
               'UVEL    ','VVEL    ','WVEL    ',
               'LaTr1RHO',
#
 frequency(2) = 31536000.,
 filename(2) = 'diags2D',
 fields(1,2) = 'ETAN    ','MXLDEPTH',
               'oceFWflx','oceQnet '
#
 frequency(3) = 31536000.,
 filename(3) = 'diagsGGL90',
 fields(1,3) = 'GGL90TKE','GGL90Lmx','GGL90Prl',
 	       'GGL90Kr ','GGL90Emn','IDEMgTKE',
#
 frequency(4) = 86400.,
# 60*365.25 days (60 years including leap years)
 timePhase(4) = 9751104000.,
#filename(4) = 'diagSeaice',
 fields(1,4) = 'SIarea  ','SIheff  ','SIhsnow ',
               'SIuice  ','SIvice  ',
#
 frequency(5) = 31536000.,
 filename(5) = 'diagsKrN2',
 fields(1,5) = 'GGL90KN2',
#
 filename(6) = 'diags2DMonthly',
 frequency(6) = 2628000.,
# this is the last 40 years of the fifth cycle ("1980-2020")
 timePhase(6) = 8520336000.,
 fields(1,6) = 'SIarea  ','SIheff  ','SIhsnow ',
               'SIuice  ','SIvice  ','MXLDEPTH',
               'oceFWflx','oceQnet ',
#fields(1,6) = 'EXFroff ','EXFpreci','EXFsnow ',
#              'EXFpress','EXFatemp','EXFuwind','EXFvwind',
#              'EXFurelw','EXFvrelw',
#              'EXFaqh  ','EXFlwdn ','EXFswdn ','EXFempmr',
# for the layers package
  fields(1,7) = 'LaUH1RHO','LaVH1RHO','LaHw1RHO','LaHs1RHO',
  filename(7) = 'diagsLAYERS',
 frequency(7) = 31536000.,
# start in the 5th cycle
 timePhase(7) = 7826112000.,
#
  fields(1,1) = 'ADVx_TH ','DFxE_TH ','ADVy_TH ','DFyE_TH ',
                'GM_ubT  ','GM_vbT  '
  filename(1) = 'diagsTHflx',
 frequency(1) = 31536000.,
# start in the 5th cycle
 timePhase(1) = 7826112000.,
 &

# Parameter for Diagnostics of per level statistics:
#-----------------
# for each output-stream:
#  stat_fname(n) : prefix of the output file name (only 8.c long) for outp.stream n
#  stat_freq(n):< 0 : write snap-shot output every |stat_freq| seconds
#               > 0 : write time-average output every stat_freq seconds
#  stat_phase(n)    : write at time = stat_phase + multiple of |stat_freq|
#  stat_region(:,n) : list of "regions" (default: 1 region only=global)
#  stat_fields(:,n) : list of diagnostics fields (8.c) (see "available_diagnostics.log"
#                 file for the list of all available diag. in this particular config)
#-----------------
 &DIAG_STATIS_PARMS
  diagSt_mnc = .TRUE.,
  stat_fields(1,1)= 'ETAN    ',
# stat_fname(1)= 'Eta',
  stat_freq(1)= 2628000.,
  stat_fields(1,2)= 'UVEL    ','VVEL    ','WVEL    ', 'THETA   ',
                    'SALT    ',
# stat_fname(2)= 'Diags',
  stat_freq(2)= 2628000.,
 &
