# Packages
 &PACKAGES
# useKPP    = .TRUE.,
  useEXF    = .TRUE.,
# useCAL    = .TRUE.,
  useSEAICE = .TRUE.,
#useDiagnostics = .TRUE.,
#useMNC    = .TRUE,
 &
