# Packages
 &PACKAGES
  useEXF    = .TRUE.,
  useSEAICE = .TRUE.,
  useOBCS   = .TRUE.,
  useDiagnostics=.TRUE.,
  useMNC = .TRUE.,
 &
